examples/data/enwl/lv-network-models/network_7/Feeder_2/Loads.dss
New Load.LOAD1 Phases=1 Bus1=98.3 kV=0.23 kW=1 PF=0.95
New Load.LOAD2 Phases=1 Bus1=109.1 kV=0.23 kW=1 PF=0.95
New Load.LOAD3 Phases=1 Bus1=117.1 kV=0.23 kW=1 PF=0.95
New Load.LOAD4 Phases=1 Bus1=122.2 kV=0.23 kW=1 PF=0.95
New Load.LOAD5 Phases=1 Bus1=126.3 kV=0.23 kW=1 PF=0.95
New Load.LOAD6 Phases=1 Bus1=131.2 kV=0.23 kW=1 PF=0.95
New Load.LOAD7 Phases=1 Bus1=135.1 kV=0.23 kW=1 PF=0.95
New Load.LOAD8 Phases=1 Bus1=140.2 kV=0.23 kW=1 PF=0.95
New Load.LOAD9 Phases=1 Bus1=144.3 kV=0.23 kW=1 PF=0.95
New Load.LOAD10 Phases=1 Bus1=148.2 kV=0.23 kW=1 PF=0.95
New Load.LOAD11 Phases=1 Bus1=153.3 kV=0.23 kW=1 PF=0.95
New Load.LOAD12 Phases=1 Bus1=159.2 kV=0.23 kW=1 PF=0.95
New Load.LOAD13 Phases=1 Bus1=168.1 kV=0.23 kW=1 PF=0.95
New Load.LOAD14 Phases=1 Bus1=175.2 kV=0.23 kW=1 PF=0.95
New Load.LOAD15 Phases=1 Bus1=179.1 kV=0.23 kW=1 PF=0.95
New Load.LOAD16 Phases=1 Bus1=187.3 kV=0.23 kW=1 PF=0.95
New Load.LOAD17 Phases=1 Bus1=196.3 kV=0.23 kW=1 PF=0.95
New Load.LOAD18 Phases=1 Bus1=202.2 kV=0.23 kW=1 PF=0.95
New Load.LOAD19 Phases=1 Bus1=203.2 kV=0.23 kW=1 PF=0.95
New Load.LOAD20 Phases=1 Bus1=206.3 kV=0.23 kW=1 PF=0.95
New Load.LOAD21 Phases=1 Bus1=212.2 kV=0.23 kW=1 PF=0.95
New Load.LOAD22 Phases=1 Bus1=220.2 kV=0.23 kW=1 PF=0.95
New Load.LOAD23 Phases=1 Bus1=223.3 kV=0.23 kW=1 PF=0.95
New Load.LOAD24 Phases=1 Bus1=231.3 kV=0.23 kW=1 PF=0.95
New Load.LOAD25 Phases=1 Bus1=237.2 kV=0.23 kW=1 PF=0.95
New Load.LOAD26 Phases=1 Bus1=244.2 kV=0.23 kW=1 PF=0.95
New Load.LOAD27 Phases=1 Bus1=247.3 kV=0.23 kW=1 PF=0.95
New Load.LOAD28 Phases=1 Bus1=254.3 kV=0.23 kW=1 PF=0.95
New Load.LOAD29 Phases=1 Bus1=260.2 kV=0.23 kW=1 PF=0.95
New Load.LOAD30 Phases=1 Bus1=269.3 kV=0.23 kW=1 PF=0.95
New Load.LOAD31 Phases=1 Bus1=353.2 kV=0.23 kW=1 PF=0.95
New Load.LOAD32 Phases=1 Bus1=363.1 kV=0.23 kW=1 PF=0.95
New Load.LOAD33 Phases=1 Bus1=373.2 kV=0.23 kW=1 PF=0.95
New Load.LOAD34 Phases=1 Bus1=377.1 kV=0.23 kW=1 PF=0.95
New Load.LOAD35 Phases=1 Bus1=383.1 kV=0.23 kW=1 PF=0.95
New Load.LOAD36 Phases=1 Bus1=388.1 kV=0.23 kW=1 PF=0.95
New Load.LOAD37 Phases=1 Bus1=397.1 kV=0.23 kW=1 PF=0.95
New Load.LOAD38 Phases=1 Bus1=403.1 kV=0.23 kW=1 PF=0.95
New Load.LOAD39 Phases=1 Bus1=427.1 kV=0.23 kW=1 PF=0.95
New Load.LOAD40 Phases=1 Bus1=433.1 kV=0.23 kW=1 PF=0.95
New Load.LOAD41 Phases=1 Bus1=445.1 kV=0.23 kW=1 PF=0.95
New Load.LOAD42 Phases=1 Bus1=476.3 kV=0.23 kW=1 PF=0.95
New Load.LOAD43 Phases=1 Bus1=477.3 kV=0.23 kW=1 PF=0.95
New Load.LOAD44 Phases=1 Bus1=486.3 kV=0.23 kW=1 PF=0.95
New Load.LOAD45 Phases=1 Bus1=487.3 kV=0.23 kW=1 PF=0.95
New Load.LOAD46 Phases=1 Bus1=515.3 kV=0.23 kW=1 PF=0.95
New Load.LOAD47 Phases=1 Bus1=519.1 kV=0.23 kW=1 PF=0.95
New Load.LOAD48 Phases=1 Bus1=523.3 kV=0.23 kW=1 PF=0.95
New Load.LOAD49 Phases=1 Bus1=525.3 kV=0.23 kW=1 PF=0.95
New Load.LOAD50 Phases=1 Bus1=536.3 kV=0.23 kW=1 PF=0.95
New Load.LOAD51 Phases=1 Bus1=544.3 kV=0.23 kW=1 PF=0.95
New Load.LOAD52 Phases=1 Bus1=548.3 kV=0.23 kW=1 PF=0.95
New Load.LOAD53 Phases=1 Bus1=553.3 kV=0.23 kW=1 PF=0.95
New Load.LOAD54 Phases=1 Bus1=566.3 kV=0.23 kW=1 PF=0.95
New Load.LOAD55 Phases=1 Bus1=572.3 kV=0.23 kW=1 PF=0.95
New Load.LOAD56 Phases=1 Bus1=588.3 kV=0.23 kW=1 PF=0.95
New Load.LOAD57 Phases=1 Bus1=603.3 kV=0.23 kW=1 PF=0.95
New Load.LOAD58 Phases=1 Bus1=604.3 kV=0.23 kW=1 PF=0.95